Circuit: * C:\Users\danil\Desktop\tools\LTSPICE\probe\Draft1.asc

Direct Newton iteration for .op point succeeded.
Note: .fourier statements are only valid with a .tran command.
      No Fourier analysis performed.


Date: Mon Nov 13 18:56:57 2017
Total elapsed time: 0.066 seconds.

tnom = 27
temp = 27
method = trap
totiter = 8
traniter = 0
tranpoints = 0
accept = 0
rejected = 0
matrix size = 18
fillins = 2
solver = Normal
Matrix Compiler1:      74 opcodes
Matrix Compiler2: 1.49 KB object code size
